Circuit: * C:\Users\Anik\Google Drive\Thesis_shared_folder\anik_thesis\simulations\pattern_with_memristor\bangla_font_pattern_arka.asc

Fatal Error: Could not open file "c:\users\user\google drive\thesis_shared_folder\anik_thesis\simulations\pattern_with_memristor\pwm_files\r_16_1.txt" in PWL

