Circuit: * C:\Users\Anik\Google Drive\Thesis_shared_folder\anik_thesis\simulations\pattern_with_memristor\memristor_resistance_measurement.asc

V1: Removing PWL point (0.000431,-1)
WARNING: Node M is floating.

Direct Newton iteration for .op point succeeded.

Date: Mon Nov 02 21:19:49 2015
Total elapsed time: 0.255 seconds.

tnom = 27
temp = 27
method = modified trap
totiter = 5748
traniter = 5744
tranpoints = 2872
accept = 2872
rejected = 0
matrix size = 3
fillins = 0
solver = Normal
Matrix Compiler1:       5 opcodes  0.1/[0.1]/0.1
Matrix Compiler2: off  [0.0]/0.1/0.1


