Circuit: * C:\Users\Anik\Google Drive\Thesis_shared_folder\anik_thesis\simulations\pattern_with_memristor\programmer_with_transmission.asc

V5: Removing PWL point (0.000399,-1)
WARNING: Node M is floating.

WARNING: Less than two connections to node N001.  This node is used by V1.
WARNING: Less than two connections to node N008.  This node is used by V2.
Direct Newton iteration for .op point succeeded.
Ignoring empty pin current: Ix(u3:1)
Ignoring empty pin current: Ix(u3:2)
Ignoring empty pin current: Ix(u3:1)
Ignoring empty pin current: Ix(u3:2)
Heightened Def Con from 1e-006 to 1.002e-006

Date: Sun Nov 01 22:01:16 2015
Total elapsed time: 1.227 seconds.

tnom = 27
temp = 27
method = modified trap
totiter = 44441
traniter = 44434
tranpoints = 17536
accept = 13414
rejected = 4123
matrix size = 30
fillins = 6
solver = Normal
Matrix Compiler1: 1.93 KB object code size  1.1/1.1/[0.5]
Matrix Compiler2: 2.28 KB object code size  0.6/1.1/[0.6]


