Circuit: * C:\Users\mrinmoy\Google Drive\Thesis_shared_folder\Mrinmoy_thesis\simulation\ALL_GATES\NOR\WITH_MEMRISTOR\ADALINE.asc

Vpbias: Removing PWL point (0.000411,-1)
Limiting rise time of source vin1 to 1e-005
Limiting fall time of source vin1 to 1e-005
Vp1: Removing PWL point (0.000409,-1)
Limiting rise time of source vin2 to 2e-005
Limiting fall time of source vin2 to 2e-005
Vp2: Removing PWL point (0.000402,-1)
WARNING: Node M1 is floating.
WARNING: Node M2 is floating.
WARNING: Node M0 is floating.

Direct Newton iteration failed to find .op point.  (Use ".option noopiter" to skip.)
Starting Gmin stepping
Gmin = 10
Gmin = 1.07374
Gmin = 0.115292
Gmin = 0.0123794
Gmin = 0.00132923
Gmin = 0.000142725
Gmin = 1.5325e-005
Gmin = 1.6455e-006
Gmin = 1.76685e-007
Gmin = 1.89714e-008
Gmin = 2.03704e-009
Gmin = 2.18725e-010
Gmin = 2.34854e-011
Gmin = 2.52173e-012
Gmin = 2.70769e-013
Gmin = 0
Gmin stepping succeeded in finding the operating point.


Date: Tue Feb 16 17:23:44 2016
Total elapsed time: 1.274 seconds.

tnom = 27
temp = 27
method = modified trap
totiter = 23295
traniter = 22861
tranpoints = 9634
accept = 7778
rejected = 1856
matrix size = 84
fillins = 48
solver = Normal
Thread vector: 46.5/28.7[4] 17.2/8.3[4] 5.3/2.8[4] 0.5/6.7[1]  2592/500
Matrix Compiler1: 5.34 KB object code size  2.4/1.3/[0.8]
Matrix Compiler2: 8.51 KB object code size  1.4/2.1/[1.1]


