Circuit: * C:\Users\Anik\Google Drive\Thesis_shared_folder\anik_thesis\simulations\and_with_positive_weight.asc

Direct Newton iteration failed to find .op point.  (Use ".option noopiter" to skip.)
Starting Gmin stepping
Gmin = 10
Gmin = 1.07374
Gmin = 0.115292
Gmin = 0.0123794
Gmin = 0.00132923
Gmin = 0.000142725
Gmin = 1.5325e-005
Gmin = 1.6455e-006
Gmin = 1.76685e-007
Gmin = 1.89714e-008
Gmin = 2.03704e-009
Gmin = 2.18725e-010
Gmin = 2.34854e-011
Gmin = 2.52173e-012
Gmin = 2.70769e-013
Gmin = 0
Gmin stepping succeeded in finding the operating point.


Date: Thu Sep 17 19:18:33 2015
Total elapsed time: 1.141 seconds.

tnom = 27
temp = 27
method = modified trap
totiter = 4699
traniter = 4338
tranpoints = 2158
accept = 1903
rejected = 255
matrix size = 15
fillins = 2
solver = Normal
Matrix Compiler1: 644 bytes object code size  0.7/0.5/[0.2]
Matrix Compiler2: off  [0.5]/0.7/0.9


