Circuit: * C:\Users\Anik\Google Drive\Thesis_shared_folder\anik_thesis\simulations\cmos.asc

Direct Newton iteration for .op point succeeded.

Date: Sun Nov 01 21:43:27 2015
Total elapsed time: 0.158 seconds.

tnom = 27
temp = 27
method = modified trap
totiter = 5107
traniter = 5100
tranpoints = 2129
accept = 1902
rejected = 227
matrix size = 15
fillins = 0
solver = Normal
Matrix Compiler1: 774 bytes object code size  0.5/0.5/[0.2]
Matrix Compiler2: off  [0.3]/0.5/0.3


