Circuit: * J:\thesis\simulations\Draft7.asc

Direct Newton iteration for .op point succeeded.

Date: Sun Sep 13 15:49:22 2015
Total elapsed time: 0.419 seconds.

tnom = 27
temp = 27
method = modified trap
totiter = 5511
traniter = 5497
tranpoints = 1935
accept = 1692
rejected = 243
matrix size = 17
fillins = 23
solver = Normal
Matrix Compiler1: 2.14 KB object code size  1.3/0.8/[0.3]
Matrix Compiler2: off  [0.6]/0.9/0.8


