Circuit: * J:\thesis\simulations\madaline_with_resistor.asc

Direct Newton iteration for .op point succeeded.

Date: Sun Sep 13 15:08:32 2015
Total elapsed time: 0.898 seconds.

tnom = 27
temp = 27
method = modified trap
totiter = 3600
traniter = 3591
tranpoints = 1760
accept = 1583
rejected = 177
matrix size = 87
fillins = 27
solver = Normal
Thread vector: 201.6/73.2[2] 30.7/22.2[2] 15.0/12.7[2] 2.2/3.1[1]  2592/500
Matrix Compiler1: 5.98 KB object code size  4.5/3.1/[1.8]
Matrix Compiler2: off  [2.5]/3.5/2.9


