Circuit: * J:\thesis\simulations\madaline_trial.asc

Direct Newton iteration for .op point succeeded.
Ignoring empty pin current: Ix(u1:1)
Ignoring empty pin current: Ix(u1:2)
Ignoring empty pin current: Ix(u3:1)
Ignoring empty pin current: Ix(u3:2)
Ignoring empty pin current: Ix(u2:1)
Ignoring empty pin current: Ix(u2:2)
Ignoring empty pin current: Ix(u1:1)
Ignoring empty pin current: Ix(u1:2)
Ignoring empty pin current: Ix(u3:1)
Ignoring empty pin current: Ix(u3:2)
Ignoring empty pin current: Ix(u2:1)
Ignoring empty pin current: Ix(u2:2)

Date: Wed Sep 09 03:10:33 2015
Total elapsed time: 4.562 seconds.

tnom = 27
temp = 27
method = modified trap
totiter = 4727
traniter = 4703
tranpoints = 2203
accept = 1891
rejected = 312
matrix size = 36
fillins = 42
solver = Normal
Matrix Compiler1:     178 opcodes  2.6/[2.1]/3.5
Matrix Compiler2: off  [1.2]/3.1/1.7


