Circuit: * J:\thesis\simulations\madaline.asc

Direct Newton iteration failed to find .op point.  (Use ".option noopiter" to skip.)
Starting Gmin stepping
Gmin = 10
Gmin = 1.07374
Gmin = 0.115292
Gmin = 0.0123794
Gmin = 0.00132923
Gmin = 0.000142725
Gmin = 1.5325e-005
Gmin = 1.6455e-006
Gmin = 1.76685e-007
Gmin = 1.89714e-008
Gmin = 2.03704e-009
Gmin = 2.18725e-010
Gmin = 2.34854e-011
Gmin = 2.52173e-012
Gmin = 2.70769e-013
Gmin = 0
Gmin stepping succeeded in finding the operating point.


Date: Sun Sep 13 15:00:41 2015
Total elapsed time: 1.908 seconds.

tnom = 27
temp = 27
method = modified trap
totiter = 5168
traniter = 4745
tranpoints = 2317
accept = 2068
rejected = 249
matrix size = 116
fillins = 87
solver = Normal
Thread vector: 338.3/183.9[2] 46.1/30.9[2] 36.6/27.7[2] 2.6/8.4[1]  2592/500
Matrix Compiler1: 11.2 KB object code size  9.2/7.0/[4.1]
Matrix Compiler2: 15.1 KB object code size  4.9/6.0/[2.6]


