Circuit: * C:\Users\Anik\Google Drive\Thesis_shared_folder\anik_thesis\simulations\pattern_new_algo_error_check.asc

WARNING: Less than two connections to node N013.  This node is used by R42.
Direct Newton iteration for .op point succeeded.

Date: Sun Nov 01 11:31:20 2015
Total elapsed time: 0.526 seconds.

tnom = 27
temp = 27
method = modified trap
totiter = 2098
traniter = 2082
tranpoints = 1042
accept = 1042
rejected = 0
matrix size = 147
fillins = 20
solver = Normal
Thread vector: 37.4/17.6[2] 9.1/5.9[2] 3.8/2.7[2] 2.5/1.6[2]  2592/500
Matrix Compiler1: 6.01 KB object code size  3.8/2.2/[1.5]
Matrix Compiler2: 11.9 KB object code size  2.5/4.1/[2.3]


