Circuit: * C:\Users\Anik\Google Drive\Thesis_shared_folder\anik_thesis\simulations\pattern_new_algo.asc

WARNING: Less than two connections to node N013.  This node is used by R42.
Direct Newton iteration for .op point succeeded.

Date: Wed Feb 17 04:52:50 2016
Total elapsed time: 0.616 seconds.

tnom = 27
temp = 27
method = modified trap
totiter = 2098
traniter = 2082
tranpoints = 1042
accept = 1042
rejected = 0
matrix size = 147
fillins = 20
solver = Normal
Thread vector: 27.9/16.0[2] 10.7/7.0[2] 3.4/17.0[1] 1.8/2.0[1]  2592/500
Matrix Compiler1: 6.01 KB object code size  4.4/2.5/[1.1]
Matrix Compiler2: 11.9 KB object code size  2.5/4.4/[2.0]


