Circuit: * C:\Users\User\Google Drive\Thesis_shared_folder\anik_thesis\simulations\pattern_new_algo_error_check_another.asc

WARNING: Less than two connections to node N013.  This node is used by R42.
Direct Newton iteration for .op point succeeded.

Date: Mon Oct 19 12:09:15 2015
Total elapsed time: 1.345 seconds.

tnom = 27
temp = 27
method = modified trap
totiter = 2098
traniter = 2082
tranpoints = 1042
accept = 1042
rejected = 0
matrix size = 147
fillins = 20
solver = Normal
Thread vector: 75.4/45.9[4] 20.1/15.3[4] 7.8/6.4[4] 2.6/9.5[1]  2592/500
Matrix Compiler1: 6.01 KB object code size  12.3/6.0/[3.9]
Matrix Compiler2: 11.9 KB object code size  8.9/10.9/[5.8]


