Circuit: * C:\Users\Anik\Google Drive\Thesis_shared_folder\anik_thesis\simulations\pattern_resistor.asc

Direct Newton iteration failed to find .op point.  (Use ".option noopiter" to skip.)
Starting Gmin stepping
Gmin = 10
Gmin = 1.07374
Gmin = 0.115292
Gmin = 0.0123794
Gmin = 0.00132923
Gmin = 0.000142725
Gmin = 1.5325e-005
Gmin = 1.6455e-006
Gmin = 1.76685e-007
Gmin = 1.89714e-008
Gmin = 2.03704e-009
Gmin = 2.18725e-010
Gmin = 2.34854e-011
Gmin = 2.52173e-012
Gmin = 2.70769e-013
Gmin = 0
Gmin stepping succeeded in finding the operating point.


Date: Mon Oct 05 15:22:01 2015
Total elapsed time: 0.327 seconds.

tnom = 27
temp = 27
method = modified trap
totiter = 2483
traniter = 2082
tranpoints = 1042
accept = 1042
rejected = 0
matrix size = 61
fillins = 11
solver = Normal
Thread vector: 28.5/17.3[2] 7.8/6.6[2] 3.5/15.5[1] 0.7/7.0[1]  2592/500
Matrix Compiler1: 2.33 KB object code size  2.2/1.4/[0.8]
Matrix Compiler2: off  [1.5]/2.5/2.1


