Circuit: * J:\thesis\simulations\simul_mem.asc

V7: Removing PWL point (5.04e-006,-4)
V7: Removing PWL point (9.08e-006,-5)
V7: Removing PWL point (1.11e-005,-3)
V7: Removing PWL point (1.312e-005,-4)
V7: Removing PWL point (1.414e-005,-5)
V7: Removing PWL point (1.617e-005,-5)
V7: Removing PWL point (2e-005,-4)
Limiting rise time of source v6 to 1e-007
Limiting fall time of source v6 to 1e-007
V5: Removing PWL point (5.04e-006,-4)
V5: Removing PWL point (9.08e-006,-5)
V5: Removing PWL point (1.11e-005,-3)
V5: Removing PWL point (1.312e-005,-4)
V5: Removing PWL point (1.414e-005,-5)
V5: Removing PWL point (1.617e-005,-5)
V5: Removing PWL point (2e-005,-4)
Limiting rise time of source v2 to 5e-008
Limiting fall time of source v2 to 5e-008
V1: Removing PWL point (5.04e-006,-4)
V1: Removing PWL point (9.08e-006,-5)
V1: Removing PWL point (1.11e-005,-3)
V1: Removing PWL point (1.312e-005,-4)
V1: Removing PWL point (1.414e-005,-5)
V1: Removing PWL point (1.617e-005,-5)
V1: Removing PWL point (2e-005,-4)
WARNING: Node M is floating.

Direct Newton iteration failed to find .op point.  (Use ".option noopiter" to skip.)
Starting Gmin stepping
Gmin = 10
Gmin = 1.07374
Gmin = 0.115292
Gmin = 0.0123794
Gmin = 0.00132923
Gmin = 0.000142725
Gmin = 1.5325e-005
Gmin = 1.6455e-006
Gmin = 1.76685e-007
Gmin = 1.89714e-008
Gmin = 2.03704e-009
Gmin = 2.18725e-010
Gmin = 2.34854e-011
Gmin = 2.52173e-012
Gmin = 2.70769e-013
Gmin = 0
Gmin stepping succeeded in finding the operating point.

Ignoring empty pin current: Ix(switch_r0:prog_on_pos)
Ignoring empty pin current: Ix(switch_r0:prog_on_neg)
Ignoring empty pin current: Ix(switch_r0:main_ckton_pos)
Ignoring empty pin current: Ix(switch_r0:main_ckton_neg)
Ignoring empty pin current: Ix(switch_r1:prog_on_pos)
Ignoring empty pin current: Ix(switch_r1:prog_on_neg)
Ignoring empty pin current: Ix(switch_r1:main_ckton_pos)
Ignoring empty pin current: Ix(switch_r1:main_ckton_neg)
Ignoring empty pin current: Ix(switch_r2:prog_on_pos)
Ignoring empty pin current: Ix(switch_r2:prog_on_neg)
Ignoring empty pin current: Ix(switch_r2:main_ckton_pos)
Ignoring empty pin current: Ix(switch_r2:main_ckton_neg)
Ignoring empty pin current: Ix(switch_r0:prog_on_pos)
Ignoring empty pin current: Ix(switch_r0:prog_on_neg)
Ignoring empty pin current: Ix(switch_r0:main_ckton_pos)
Ignoring empty pin current: Ix(switch_r0:main_ckton_neg)
Ignoring empty pin current: Ix(switch_r1:prog_on_pos)
Ignoring empty pin current: Ix(switch_r1:prog_on_neg)
Ignoring empty pin current: Ix(switch_r1:main_ckton_pos)
Ignoring empty pin current: Ix(switch_r1:main_ckton_neg)
Ignoring empty pin current: Ix(switch_r2:prog_on_pos)
Ignoring empty pin current: Ix(switch_r2:prog_on_neg)
Ignoring empty pin current: Ix(switch_r2:main_ckton_pos)
Ignoring empty pin current: Ix(switch_r2:main_ckton_neg)

Date: Fri Sep 04 00:21:09 2015
Total elapsed time: 9.211 seconds.

tnom = 27
temp = 27
method = modified trap
totiter = 70159
traniter = 69788
tranpoints = 33819
accept = 27123
rejected = 6696
matrix size = 102
fillins = 85
solver = Normal
Thread vector: 116.5/80.5[2] 43.0/19.7[2] 12.5/8.0[2] 1.8/2.6[1]  2592/500
Matrix Compiler1: 8.16 KB object code size  5.3/3.9/[2.7]
Matrix Compiler2: 10.6 KB object code size  3.4/5.0/[1.7]


