Circuit: * J:\thesis\simulations\xor_with_resistor.asc

Direct Newton iteration for .op point succeeded.

Date: Sun Sep 13 16:42:23 2015
Total elapsed time: 4.723 seconds.

tnom = 27
temp = 27
method = modified trap
totiter = 9392
traniter = 9383
tranpoints = 3433
accept = 2832
rejected = 601
matrix size = 158
fillins = 85
solver = Normal
Thread vector: 496.3/351.6[2] 68.6/53.8[2] 79.3/187.5[1] 4.6/91.6[1]  2592/500
Matrix Compiler1: 12.1 KB object code size  13.4/9.9/[5.8]
Matrix Compiler2: 19.4 KB object code size  6.1/13.3/[5.3]


