Circuit: * M:\thesis\simulation\modelsimulation\ADALINECHECK.asc

Vpbias: Removing PWL point (0.000414,-1)
Vp1: Removing PWL point (0.000432,-1)
Vp2: Removing PWL point (0.00043,-1)
WARNING: Node M1 is floating.
WARNING: Node M2 is floating.
WARNING: Node M0 is floating.

Direct Newton iteration failed to find .op point.  (Use ".option noopiter" to skip.)
Starting Gmin stepping
Gmin = 10
Gmin = 1.07374
Gmin = 0.115292
Gmin = 0.0123794
Gmin = 0.00132923
Gmin = 0.000142725
Gmin = 1.5325e-005
Gmin = 1.6455e-006
Gmin = 1.76685e-007
Gmin = 1.89714e-008
Gmin = 2.03704e-009
Gmin = 2.18725e-010
Gmin = 2.34854e-011
Gmin = 2.52173e-012
Gmin = 2.70769e-013
Gmin = 0
Gmin stepping succeeded in finding the operating point.


Date: Sun Sep 13 14:12:36 2015
Total elapsed time: 2.793 seconds.

tnom = 27
temp = 27
method = modified trap
totiter = 20897
traniter = 20456
tranpoints = 9567
accept = 8127
rejected = 1440
matrix size = 64
fillins = 26
solver = Normal
Thread vector: 131.1/104.2[3] 36.4/18.8[3] 19.4/10.1[3] 1.6/64.8[1]  2592/500
Matrix Compiler1: 4.52 KB object code size  7.2/3.1/[1.5]
Matrix Compiler2: 7.26 KB object code size  4.0/5.1/[2.4]


