Circuit: * M:\thesis\simulation\modelsimulation\memmodel_sim.asc

V2: Removing PWL point (0.000401,-1)
V1: Removing PWL point (0.000435,-1)
V1: Removing PWL point (0.001021,-1)
WARNING: Node M2 is floating.
WARNING: Node M1 is floating.

Direct Newton iteration for .op point succeeded.

Date: Sun Sep 13 14:03:07 2015
Total elapsed time: 0.761 seconds.

tnom = 27
temp = 27
method = modified trap
totiter = 8203
traniter = 8199
tranpoints = 4097
accept = 4096
rejected = 1
matrix size = 6
fillins = 0
solver = Normal
Matrix Compiler1: 182 bytes object code size  0.2/0.1/[0.1]
Matrix Compiler2: 322 bytes object code size  0.2/0.2/[0.1]


