Circuit: * M:\thesis\simulation\modelsimulation\Switchboxckeck.asc

Limiting rise time of source v3 to 1e-007
Limiting fall time of source v3 to 1e-007
WARNING: Node M is floating.

Direct Newton iteration for .op point succeeded.

Date: Sat Sep 05 14:43:53 2015
Total elapsed time: 0.417 seconds.

tnom = 27
temp = 27
method = modified trap
totiter = 9931
traniter = 9925
tranpoints = 4391
accept = 3128
rejected = 1263
matrix size = 12
fillins = 0
solver = Normal
Matrix Compiler1: 436 bytes object code size  0.6/0.3/[0.1]
Matrix Compiler2: 936 bytes object code size  0.3/0.5/[0.3]


