Circuit: * M:\thesis\simulation\memprograming\Draft1.asc

Limiting rise time of source v1 to 1e-007
Limiting fall time of source v1 to 1e-007
Direct Newton iteration for .op point succeeded.

Date: Sat Sep 05 13:22:17 2015
Total elapsed time: 0.052 seconds.

tnom = 27
temp = 27
method = modified trap
totiter = 2171
traniter = 2168
tranpoints = 1084
accept = 1077
rejected = 7
matrix size = 2
fillins = 0
solver = Normal
Matrix Compiler1: 36 bytes object code size  0.1/0.1/[0.0]
Matrix Compiler2: 96 bytes object code size  0.1/0.2/[0.1]


