Circuit: * M:\thesis\simulation\memprograming\programmer.asc

V3: Removing PWL point (5.04e-006,-4)
V3: Removing PWL point (1.617e-005,-0.05)
WARNING: Node M is floating.

Direct Newton iteration for .op point succeeded.

Date: Tue Sep 01 21:18:34 2015
Total elapsed time: 0.298 seconds.

tnom = 27
temp = 27
method = modified trap
totiter = 2395
traniter = 2380
tranpoints = 1178
accept = 1160
rejected = 18
matrix size = 12
fillins = 2
solver = Normal
Matrix Compiler1: 638 bytes object code size  0.8/0.5/[0.3]
Matrix Compiler2: off  [0.5]/0.7/0.5


