Circuit: * C:\Users\pagol\Downloads\mem_only_resistorv1.asc

Direct Newton iteration for .op point succeeded.

Date: Sun Aug 30 00:08:48 2015
Total elapsed time: 0.703 seconds.

tnom = 27
temp = 27
method = modified trap
totiter = 3190
traniter = 3181
tranpoints = 1186
accept = 890
rejected = 296
matrix size = 44
fillins = 13
solver = Normal
Thread vector: 133.2/69.9[4] 25.2/20.5[4] 14.9/8.0[4] 1.2/9.9[1]  2592/500
Matrix Compiler1: 2.91 KB object code size  5.2/2.7/[0.9]
Matrix Compiler2: 5.11 KB object code size  2.5/3.6/[1.9]


