Circuit: * C:\Users\pagol\Downloads\mem_only_resistor.asc

Direct Newton iteration for .op point succeeded.

Date: Sat Aug 29 20:33:51 2015
Total elapsed time: 3.345 seconds.

tnom = 27
temp = 27
method = modified trap
totiter = 1848
traniter = 1839
tranpoints = 852
accept = 657
rejected = 195
matrix size = 44
fillins = 13
solver = Normal
Thread vector: 84.4/32.0[4] 15.3/10.4[4] 10.8/6.8[4] 0.8/1.7[1]  2592/500
Matrix Compiler1: 2.91 KB object code size  2.3/1.6/[0.8]
Matrix Compiler2: 5.11 KB object code size  1.2/2.3/[1.0]


