Circuit: * M:\thesis\simulation\opamp-fixedres\mem_only_resistor_test.asc

Direct Newton iteration for .op point succeeded.

Date: Sun Sep 13 13:05:17 2015
Total elapsed time: 0.733 seconds.

tnom = 27
temp = 27
method = modified trap
totiter = 3288
traniter = 3279
tranpoints = 1252
accept = 960
rejected = 292
matrix size = 44
fillins = 13
solver = Normal
Thread vector: 129.1/96.7[4] 25.6/18.5[3] 15.7/10.0[2] 1.2/5.2[1]  2592/500
Matrix Compiler1: 2.93 KB object code size  4.9/3.1/[1.0]
Matrix Compiler2: 5.10 KB object code size  2.7/3.6/[1.8]


