Circuit: * M:\thesis\simulation\opamp-fixedres\program_ckt.asc

Limiting rise time of source v3 to 1e-010
Limiting fall time of source v3 to 1e-010
WARNING: Node M is floating.

Direct Newton iteration for .op point succeeded.

Date: Mon Aug 31 12:33:32 2015
Total elapsed time: 0.313 seconds.

tnom = 27
temp = 27
method = modified trap
totiter = 2637
traniter = 2622
tranpoints = 1312
accept = 1248
rejected = 64
matrix size = 12
fillins = 4
solver = Normal
Matrix Compiler1: 1010 bytes object code size  1.1/0.6/[0.3]
Matrix Compiler2: off  [0.5]/0.7/0.9


