Circuit: * Memristor subcircuit developed by Chang et al.

Fatal Error: No analysis request found.
