Circuit: * HP Memristor SPICE Model Using Joglekar Window

Fatal Error: No analysis request found.
