Circuit: * Memristor model for many devices

Fatal Error: No analysis request found.
