Circuit: * J:\thesis\schm_jogelekar.asc

Limiting rise time of source v1 to 5e-011
Limiting fall time of source v1 to 5e-011
WARNING: Node M is floating.

Direct Newton iteration for .op point succeeded.

Date: Mon Aug 31 02:55:27 2015
Total elapsed time: 0.097 seconds.

tnom = 27
temp = 27
method = modified trap
totiter = 2256
traniter = 2252
tranpoints = 1119
accept = 1101
rejected = 18
matrix size = 3
fillins = 0
solver = Normal
Matrix Compiler1:       5 opcodes  0.1/[0.0]/0.1
Matrix Compiler2: off  [0.0]/0.1/0.1


