Circuit: * J:\thesis\simulations\Draft4.asc

Direct Newton iteration for .op point succeeded.

Date: Sun Aug 30 12:25:58 2015
Total elapsed time: 0.164 seconds.

tnom = 27
temp = 27
method = modified trap
totiter = 2107
traniter = 2098
tranpoints = 1050
accept = 864
rejected = 186
matrix size = 19
fillins = 10
solver = Normal
Matrix Compiler1: 918 bytes object code size  1.0/0.5/[0.3]
Matrix Compiler2: off  [0.5]/0.7/0.5


