Circuit: * J:\thesis\simulations\Draft6.asc

V1: Removing PWL point (5.04e-006,-4)
V1: Removing PWL point (9.08e-006,-5)
V1: Removing PWL point (1.11e-005,-3)
V1: Removing PWL point (1.312e-005,-4)
V1: Removing PWL point (1.414e-005,-5)
V1: Removing PWL point (1.617e-005,-5)
V1: Removing PWL point (2e-005,-4)
WARNING: Node M is floating.

Direct Newton iteration for .op point succeeded.

Date: Wed Sep 02 23:12:04 2015
Total elapsed time: 0.281 seconds.

tnom = 27
temp = 27
method = modified trap
totiter = 2996
traniter = 2981
tranpoints = 1409
accept = 1372
rejected = 37
matrix size = 12
fillins = 2
solver = Normal
Matrix Compiler1: 602 bytes object code size  0.5/0.4/[0.2]
Matrix Compiler2: off  [0.3]/0.5/0.4


