Circuit: * J:\thesis\simulations\mem_only_resistor_test.asc

Direct Newton iteration for .op point succeeded.

Date: Sun Sep 06 12:52:22 2015
Total elapsed time: 0.476 seconds.

tnom = 27
temp = 27
method = modified trap
totiter = 6281
traniter = 6272
tranpoints = 2529
accept = 2127
rejected = 402
matrix size = 44
fillins = 13
solver = Normal
Thread vector: 71.4/31.9[2] 14.9/8.5[2] 8.9/5.4[2] 1.1/1.0[2]  2592/500
Matrix Compiler1: 2.91 KB object code size  2.3/1.6/[0.7]
Matrix Compiler2: 5.11 KB object code size  1.1/1.9/[1.0]


