Circuit: * J:\thesis\simulations\programmer.asc

V3: Removing PWL point (5.04e-006,-4)
V3: Removing PWL point (9.08e-006,-5)
V3: Removing PWL point (1.11e-005,-3)
V3: Removing PWL point (1.312e-005,-4)
WARNING: Node M is floating.

WARNING: Less than two connections to node N003.  This node is used by V1.
WARNING: Less than two connections to node N005.  This node is used by V2.
Direct Newton iteration for .op point succeeded.
Ignoring empty pin current: Ix(u2:1)
Ignoring empty pin current: Ix(u2:2)
Ignoring empty pin current: Ix(u2:1)
Ignoring empty pin current: Ix(u2:2)

Date: Sun Sep 06 12:20:57 2015
Total elapsed time: 0.089 seconds.

tnom = 27
temp = 27
method = modified trap
totiter = 2479
traniter = 2476
tranpoints = 1239
accept = 1231
rejected = 8
matrix size = 9
fillins = 1
solver = Normal
Matrix Compiler1: 224 bytes object code size  0.2/0.2/[0.2]
Matrix Compiler2: off  [0.1]/0.3/0.2


