Circuit: * J:\thesis\simulations\trial_1.asc

Limiting rise time of source v4 to 1e-007
Limiting fall time of source v4 to 1e-007
V3: Removing PWL point (5.04e-006,-4)
V3: Removing PWL point (9.08e-006,-5)
V3: Removing PWL point (1.11e-005,-3)
V3: Removing PWL point (1.312e-005,-4)
WARNING: Node M is floating.

Direct Newton iteration failed to find .op point.  (Use ".option noopiter" to skip.)
Starting Gmin stepping
Gmin = 10
Gmin = 1.07374
Gmin = 0.115292
Gmin = 0.0123794
Gmin = 0.00132923
Gmin = 0.000142725
Gmin = 1.5325e-005
Gmin = 1.6455e-006
Gmin = 1.76685e-007
Gmin = 1.89714e-008
Gmin = 2.03704e-009
Gmin = 2.18725e-010
Gmin = 2.34854e-011
Gmin = 2.52173e-012
Gmin = 2.70769e-013
Gmin = 0
Gmin stepping succeeded in finding the operating point.


Date: Sun Sep 06 12:31:40 2015
Total elapsed time: 7.274 seconds.

tnom = 27
temp = 27
method = modified trap
totiter = 184502
traniter = 184146
tranpoints = 83563
accept = 61259
rejected = 22304
matrix size = 31
fillins = 12
solver = Normal
Matrix Compiler1: 1.75 KB object code size  1.4/1.0/[0.5]
Matrix Compiler2: off  [0.9]/1.6/1.8


