Circuit: * M:\thesis\thesis_anik\simulations\trial_2.asc

V13: Removing PWL point (0.000435,-1)
V13: Removing PWL point (0.001021,-1)
Limiting rise time of source v6 to 0.0002
Limiting fall time of source v6 to 0.0002
V5: Removing PWL point (0.000408,-1)
Limiting rise time of source v4 to 0.0001
Limiting fall time of source v4 to 0.0001
V3: Removing PWL point (0.000401,-1)
WARNING: Node M is floating.

WARNING: Less than two connections to node PROGRAMMER:N001.  This node is used by V:PROGRAMMER:1.
WARNING: Less than two connections to node PROGRAMMER:N003.  This node is used by V:PROGRAMMER:2.
WARNING: Less than two connections to node N004.  This node is used by V1.
WARNING: Less than two connections to node N012.  This node is used by V2.
WARNING: Less than two connections to node PROGRAMMER1:N001.  This node is used by V:PROGRAMMER1:1.
WARNING: Less than two connections to node PROGRAMMER1:N003.  This node is used by V:PROGRAMMER1:2.
WARNING: Less than two connections to node N020.  This node is used by V11.
WARNING: Less than two connections to node N031.  This node is used by V12.
WARNING: Less than two connections to node PROGRAMMER2:N001.  This node is used by V:PROGRAMMER2:1.
WARNING: Less than two connections to node PROGRAMMER2:N003.  This node is used by V:PROGRAMMER2:2.
WARNING: Less than two connections to node N035.  This node is used by V17.
WARNING: Less than two connections to node N043.  This node is used by V18.
WARNING: Less than two connections to node N015.  This node is used by V19.
WARNING: Less than two connections to node N027.  This node is used by V20.
Direct Newton iteration for .op point succeeded.
Ignoring empty pin current: Ix(u1:1)
Ignoring empty pin current: Ix(u1:2)
Ignoring empty pin current: Ix(u1:3)
Ignoring empty pin current: Ix(programmer:input)
Ignoring empty pin current: Ix(switches:prog_on_pos)
Ignoring empty pin current: Ix(switches:prog_on_neg)
Ignoring empty pin current: Ix(switches:main_ckton_pos)
Ignoring empty pin current: Ix(switches:main_ckton_neg)
Ignoring empty pin current: Ix(programmer1:input)
Ignoring empty pin current: Ix(switches1:prog_on_pos)
Ignoring empty pin current: Ix(switches1:prog_on_neg)
Ignoring empty pin current: Ix(switches1:main_ckton_pos)
Ignoring empty pin current: Ix(switches1:main_ckton_neg)
Ignoring empty pin current: Ix(programmer2:input)
Ignoring empty pin current: Ix(switches2:prog_on_pos)
Ignoring empty pin current: Ix(switches2:prog_on_neg)
Ignoring empty pin current: Ix(switches2:main_ckton_pos)
Ignoring empty pin current: Ix(switches2:main_ckton_neg)
Ignoring empty pin current: Ix(u2:1)
Ignoring empty pin current: Ix(u2:2)
Ignoring empty pin current: Ix(u4:1)
Ignoring empty pin current: Ix(u4:2)
Ignoring empty pin current: Ix(u6:1)
Ignoring empty pin current: Ix(u6:2)
Ignoring empty pin current: Ix(u8:1)
Ignoring empty pin current: Ix(u8:2)
Ignoring empty pin current: Ix(u1:1)
Ignoring empty pin current: Ix(u1:2)
Ignoring empty pin current: Ix(u1:3)
Ignoring empty pin current: Ix(programmer:input)
Ignoring empty pin current: Ix(switches:prog_on_pos)
Ignoring empty pin current: Ix(switches:prog_on_neg)
Ignoring empty pin current: Ix(switches:main_ckton_pos)
Ignoring empty pin current: Ix(switches:main_ckton_neg)
Ignoring empty pin current: Ix(programmer1:input)
Ignoring empty pin current: Ix(switches1:prog_on_pos)
Ignoring empty pin current: Ix(switches1:prog_on_neg)
Ignoring empty pin current: Ix(switches1:main_ckton_pos)
Ignoring empty pin current: Ix(switches1:main_ckton_neg)
Ignoring empty pin current: Ix(programmer2:input)
Ignoring empty pin current: Ix(switches2:prog_on_pos)
Ignoring empty pin current: Ix(switches2:prog_on_neg)
Ignoring empty pin current: Ix(switches2:main_ckton_pos)
Ignoring empty pin current: Ix(switches2:main_ckton_neg)
Ignoring empty pin current: Ix(u2:1)
Ignoring empty pin current: Ix(u2:2)
Ignoring empty pin current: Ix(u4:1)
Ignoring empty pin current: Ix(u4:2)
Ignoring empty pin current: Ix(u6:1)
Ignoring empty pin current: Ix(u6:2)
Ignoring empty pin current: Ix(u8:1)
Ignoring empty pin current: Ix(u8:2)
Heightened Def Con from 0.000120055 +++++++++++++++++++++++++++++++++++++++++++to 0.000120055

Date: Sun Sep 13 12:51:53 2015
Total elapsed time: 2.411 seconds.

tnom = 27
temp = 27
method = modified trap
totiter = 27954
traniter = 27937
tranpoints = 10096
accept = 8323
rejected = 1817
matrix size = 92
fillins = 15
solver = Normal
Thread vector: 57.3/36.1[3] 13.0/10.6[3] 4.7/4.5[1] 1.0/4.6[1]  2592/500
Matrix Compiler1: 3.77 KB object code size  5.4/3.1/[1.4]
Matrix Compiler2: 6.11 KB object code size  2.6/4.2/[2.0]


